*SPEF "ieee 1481-1999"
*DESIGN "counter_8bit"
*DATE "02:29:01 Thursday February 20, 2025"
*VENDOR "The OpenROAD Project"
*PROGRAM "OpenROAD"
*VERSION "edf00dff99f6c40d67a30c0e22a8191c5d2ed9d6"
*DESIGN_FLOW "NAME_SCOPE LOCAL" "PIN_CAP NONE"
*DIVIDER /
*DELIMITER :
*BUS_DELIMITER []
*T_UNIT 1 NS
*C_UNIT 1 PF
*R_UNIT 1 OHM
*L_UNIT 1 HENRY

*NAME_MAP
*3 clk
*4 rst
*5 sine_out[0]
*6 sine_out[10]
*7 sine_out[11]
*8 sine_out[12]
*9 sine_out[13]
*10 sine_out[14]
*11 sine_out[15]
*12 sine_out[1]
*13 sine_out[2]
*14 sine_out[3]
*15 sine_out[4]
*16 sine_out[5]
*17 sine_out[6]
*18 sine_out[7]
*19 sine_out[8]
*20 sine_out[9]
*21 _000_
*22 _001_
*23 _002_
*24 _003_
*25 _004_
*26 _005_
*27 _006_
*28 _007_
*29 _008_
*30 _009_
*31 _010_
*32 _011_
*33 _012_
*34 _013_
*35 _014_
*36 _015_
*37 _016_
*38 _017_
*39 _018_
*40 _019_
*41 _020_
*42 _021_
*43 _022_
*44 _023_
*45 _024_
*46 _025_
*47 _026_
*48 _027_
*49 _028_
*50 _029_
*51 _030_
*52 _031_
*53 _032_
*54 _033_
*55 _034_
*56 _035_
*57 _036_
*58 _037_
*59 _038_
*60 _039_
*61 _040_
*62 _041_
*63 _042_
*64 _043_
*65 _044_
*66 _045_
*67 _046_
*68 _047_
*69 _048_
*70 _049_
*71 _050_
*72 _051_
*73 _052_
*74 _053_
*75 _054_
*76 _055_
*77 _056_
*78 _057_
*79 _058_
*80 _059_
*81 _060_
*82 _061_
*83 _062_
*84 _063_
*85 _064_
*86 _065_
*87 _066_
*88 _067_
*89 _068_
*90 _069_
*91 _070_
*92 _071_
*93 _072_
*94 _073_
*95 _074_
*96 _075_
*97 _076_
*98 _077_
*99 _078_
*100 _079_
*101 _080_
*102 _081_
*103 _082_
*104 _083_
*105 _084_
*106 _085_
*107 _086_
*108 _087_
*109 _088_
*110 _089_
*111 _090_
*112 _091_
*113 _092_
*114 _093_
*115 _094_
*116 _095_
*117 _096_
*118 _097_
*119 _098_
*120 _099_
*121 _100_
*122 _101_
*123 _102_
*124 _103_
*125 _104_
*126 _105_
*127 _106_
*128 _107_
*129 _108_
*130 _109_
*131 _110_
*132 _111_
*133 _112_
*134 _113_
*135 _114_
*136 _115_
*137 _116_
*138 _117_
*139 _118_
*140 _119_
*141 _120_
*142 _121_
*143 _122_
*144 _123_
*145 _124_
*146 _125_
*147 _126_
*148 _127_
*149 _128_
*150 _129_
*151 _130_
*152 _131_
*153 _132_
*154 _133_
*155 _134_
*156 _135_
*157 _136_
*158 _137_
*159 _138_
*160 _139_
*161 _140_
*162 _141_
*163 _142_
*164 _143_
*165 _144_
*166 _145_
*167 _146_
*168 _147_
*169 _148_
*170 _149_
*171 _150_
*172 _151_
*173 _152_
*174 _153_
*175 _154_
*176 _155_
*177 _156_
*178 _157_
*179 _158_
*180 _159_
*181 _160_
*182 _161_
*183 _162_
*184 _163_
*185 _164_
*186 _165_
*187 _166_
*188 _167_
*189 _168_
*190 _169_
*191 _170_
*192 _171_
*193 _172_
*194 _173_
*195 _174_
*196 _175_
*197 _176_
*198 _177_
*199 _178_
*200 _179_
*201 _180_
*202 _181_
*203 _182_
*204 _183_
*205 _184_
*206 _185_
*207 _186_
*208 _187_
*209 _188_
*210 _189_
*211 _190_
*212 _191_
*213 _192_
*214 _193_
*215 _194_
*216 _195_
*217 _196_
*218 _197_
*219 _198_
*220 _199_
*221 _200_
*222 _201_
*223 _202_
*224 _203_
*225 _204_
*226 _205_
*227 _206_
*228 _207_
*229 _208_
*230 _209_
*231 _210_
*232 _211_
*233 _212_
*234 _213_
*235 _214_
*236 _215_
*237 _216_
*238 _217_
*239 _218_
*240 _219_
*241 _220_
*242 _221_
*243 _222_
*244 _223_
*245 _224_
*246 _225_
*247 _226_
*248 _227_
*249 _228_
*250 _229_
*251 _230_
*252 _231_
*253 _232_
*254 _233_
*255 _234_
*256 _235_
*257 _236_
*258 _237_
*259 _238_
*260 _239_
*261 _240_
*262 _241_
*263 _242_
*264 _243_
*265 _244_
*266 _245_
*267 _246_
*268 _247_
*269 _248_
*270 _249_
*271 _250_
*272 _251_
*273 _252_
*274 _253_
*275 _254_
*276 _255_
*277 _256_
*278 _257_
*279 _258_
*280 _259_
*281 _260_
*282 _261_
*283 _262_
*284 _263_
*285 _264_
*286 _265_
*287 _266_
*288 _267_
*289 _268_
*290 _269_
*291 _270_
*292 _271_
*293 _272_
*294 _273_
*295 _274_
*296 _275_
*297 _276_
*298 _277_
*299 _278_
*300 _279_
*301 _280_
*302 _281_
*303 _282_
*304 _283_
*305 _284_
*306 _285_
*307 _286_
*308 _287_
*309 _288_
*310 _289_
*311 _290_
*312 _291_
*313 _292_
*314 _293_
*315 _294_
*316 _295_
*317 _296_
*318 _297_
*319 _298_
*320 _299_
*321 _300_
*322 _301_
*323 _302_
*324 _303_
*325 _304_
*326 _305_
*327 _306_
*328 _307_
*329 _308_
*330 _309_
*331 _310_
*332 _311_
*333 _312_
*334 _313_
*335 _314_
*336 _315_
*337 _316_
*338 _317_
*339 _318_
*340 _319_
*341 _320_
*342 _321_
*343 _322_
*344 _323_
*345 _324_
*346 _325_
*347 _326_
*348 _327_
*349 _328_
*350 _329_
*351 _330_
*352 _331_
*353 _332_
*354 _333_
*355 _334_
*356 _335_
*357 _336_
*358 _337_
*359 _338_
*360 _339_
*361 _340_
*362 _341_
*363 _342_
*364 _343_
*365 _344_
*366 _345_
*367 _346_
*368 _347_
*369 _348_
*370 _349_
*371 _350_
*372 _351_
*373 _352_
*374 _353_
*375 _354_
*376 _355_
*377 _356_
*378 _357_
*379 _358_
*380 _359_
*381 _360_
*382 _361_
*383 _362_
*384 _363_
*385 _364_
*386 _365_
*387 _366_
*388 _367_
*389 _368_
*390 _369_
*391 _370_
*392 _371_
*393 _372_
*394 _373_
*395 _374_
*396 _375_
*397 _376_
*398 _377_
*399 _378_
*400 _379_
*401 _380_
*402 _381_
*403 _382_
*404 _383_
*405 _384_
*406 _385_
*407 _386_
*408 _387_
*409 _388_
*410 _389_
*411 _390_
*412 clknet_0_clk
*413 clknet_1_0__leaf_clk
*414 clknet_1_1__leaf_clk
*415 net1
*416 net10
*417 net11
*418 net12
*419 net13
*420 net14
*421 net15
*422 net16
*423 net17
*424 net18
*425 net19
*426 net2
*427 net20
*428 net21
*429 net22
*430 net23
*431 net24
*432 net25
*433 net26
*434 net27
*435 net28
*436 net29
*437 net3
*438 net30
*439 net31
*440 net32
*441 net33
*442 net34
*443 net35
*444 net36
*445 net37
*446 net38
*447 net39
*448 net4
*449 net40
*450 net41
*451 net42
*452 net43
*453 net44
*454 net45
*455 net46
*456 net47
*457 net48
*458 net49
*459 net5
*460 net50
*461 net51
*462 net52
*463 net53
*464 net54
*465 net55
*466 net56
*467 net57
*468 net58
*469 net59
*470 net6
*471 net60
*472 net61
*473 net62
*474 net63
*475 net64
*476 net65
*477 net66
*478 net67
*479 net68
*480 net69
*481 net7
*482 net70
*483 net71
*484 net72
*485 net8
*486 net9
*487 tcount\[0\]
*488 tcount\[1\]
*489 tcount\[2\]
*490 tcount\[3\]
*491 tcount\[4\]
*492 tcount\[5\]
*493 tcount\[6\]
*494 tcount\[7\]
*495 FILLER_0_110
*496 FILLER_0_113
*497 FILLER_0_125
*498 FILLER_0_133
*499 FILLER_0_141
*500 FILLER_0_15
*501 FILLER_0_153
*502 FILLER_0_165
*503 FILLER_0_169
*504 FILLER_0_181
*505 FILLER_0_27
*506 FILLER_0_29
*507 FILLER_0_3
*508 FILLER_0_41
*509 FILLER_0_53
*510 FILLER_0_57
*511 FILLER_0_63
*512 FILLER_0_75
*513 FILLER_0_83
*514 FILLER_0_85
*515 FILLER_0_98
*516 FILLER_10_101
*517 FILLER_10_105
*518 FILLER_10_122
*519 FILLER_10_130
*520 FILLER_10_138
*521 FILLER_10_149
*522 FILLER_10_15
*523 FILLER_10_157
*524 FILLER_10_162
*525 FILLER_10_174
*526 FILLER_10_180
*527 FILLER_10_22
*528 FILLER_10_3
*529 FILLER_10_35
*530 FILLER_10_39
*531 FILLER_10_71
*532 FILLER_10_83
*533 FILLER_10_85
*534 FILLER_11_102
*535 FILLER_11_121
*536 FILLER_11_15
*537 FILLER_11_174
*538 FILLER_11_182
*539 FILLER_11_27
*540 FILLER_11_3
*541 FILLER_11_31
*542 FILLER_11_37
*543 FILLER_11_45
*544 FILLER_11_85
*545 FILLER_12_111
*546 FILLER_12_122
*547 FILLER_12_134
*548 FILLER_12_141
*549 FILLER_12_166
*550 FILLER_12_178
*551 FILLER_12_184
*552 FILLER_12_19
*553 FILLER_12_26
*554 FILLER_12_38
*555 FILLER_12_45
*556 FILLER_12_53
*557 FILLER_12_60
*558 FILLER_12_66
*559 FILLER_12_7
*560 FILLER_12_71
*561 FILLER_12_77
*562 FILLER_12_83
*563 FILLER_12_85
*564 FILLER_12_99
*565 FILLER_13_111
*566 FILLER_13_113
*567 FILLER_13_12
*568 FILLER_13_132
*569 FILLER_13_136
*570 FILLER_13_152
*571 FILLER_13_160
*572 FILLER_13_3
*573 FILLER_13_30
*574 FILLER_13_53
*575 FILLER_13_75
*576 FILLER_13_87
*577 FILLER_13_93
*578 FILLER_13_99
*579 FILLER_14_136
*580 FILLER_14_141
*581 FILLER_14_149
*582 FILLER_14_153
*583 FILLER_14_159
*584 FILLER_14_177
*585 FILLER_14_25
*586 FILLER_14_3
*587 FILLER_14_36
*588 FILLER_14_58
*589 FILLER_14_72
*590 FILLER_14_80
*591 FILLER_14_98
*592 FILLER_15_102
*593 FILLER_15_106
*594 FILLER_15_113
*595 FILLER_15_129
*596 FILLER_15_137
*597 FILLER_15_148
*598 FILLER_15_15
*599 FILLER_15_161
*600 FILLER_15_166
*601 FILLER_15_177
*602 FILLER_15_24
*603 FILLER_15_3
*604 FILLER_15_51
*605 FILLER_15_55
*606 FILLER_15_57
*607 FILLER_15_66
*608 FILLER_15_78
*609 FILLER_15_82
*610 FILLER_15_93
*611 FILLER_16_104
*612 FILLER_16_123
*613 FILLER_16_131
*614 FILLER_16_184
*615 FILLER_16_27
*616 FILLER_16_3
*617 FILLER_16_35
*618 FILLER_16_41
*619 FILLER_16_57
*620 FILLER_16_65
*621 FILLER_16_69
*622 FILLER_16_82
*623 FILLER_16_89
*624 FILLER_17_101
*625 FILLER_17_109
*626 FILLER_17_11
*627 FILLER_17_113
*628 FILLER_17_126
*629 FILLER_17_131
*630 FILLER_17_139
*631 FILLER_17_144
*632 FILLER_17_148
*633 FILLER_17_154
*634 FILLER_17_166
*635 FILLER_17_169
*636 FILLER_17_174
*637 FILLER_17_182
*638 FILLER_17_23
*639 FILLER_17_27
*640 FILLER_17_3
*641 FILLER_17_36
*642 FILLER_17_48
*643 FILLER_17_57
*644 FILLER_17_80
*645 FILLER_17_88
*646 FILLER_18_107
*647 FILLER_18_11
*648 FILLER_18_120
*649 FILLER_18_124
*650 FILLER_18_138
*651 FILLER_18_141
*652 FILLER_18_151
*653 FILLER_18_159
*654 FILLER_18_181
*655 FILLER_18_22
*656 FILLER_18_3
*657 FILLER_18_42
*658 FILLER_18_52
*659 FILLER_18_58
*660 FILLER_18_82
*661 FILLER_18_85
*662 FILLER_18_90
*663 FILLER_18_95
*664 FILLER_19_106
*665 FILLER_19_121
*666 FILLER_19_129
*667 FILLER_19_13
*668 FILLER_19_145
*669 FILLER_19_173
*670 FILLER_19_183
*671 FILLER_19_22
*672 FILLER_19_26
*673 FILLER_19_3
*674 FILLER_19_44
*675 FILLER_19_65
*676 FILLER_19_77
*677 FILLER_19_88
*678 FILLER_19_98
*679 FILLER_1_103
*680 FILLER_1_107
*681 FILLER_1_111
*682 FILLER_1_113
*683 FILLER_1_119
*684 FILLER_1_123
*685 FILLER_1_136
*686 FILLER_1_148
*687 FILLER_1_15
*688 FILLER_1_160
*689 FILLER_1_169
*690 FILLER_1_181
*691 FILLER_1_27
*692 FILLER_1_3
*693 FILLER_1_39
*694 FILLER_1_51
*695 FILLER_1_55
*696 FILLER_1_69
*697 FILLER_1_81
*698 FILLER_1_85
*699 FILLER_20_100
*700 FILLER_20_104
*701 FILLER_20_112
*702 FILLER_20_124
*703 FILLER_20_136
*704 FILLER_20_141
*705 FILLER_20_149
*706 FILLER_20_156
*707 FILLER_20_164
*708 FILLER_20_26
*709 FILLER_20_3
*710 FILLER_20_34
*711 FILLER_20_42
*712 FILLER_20_48
*713 FILLER_20_60
*714 FILLER_20_64
*715 FILLER_20_72
*716 FILLER_20_80
*717 FILLER_21_105
*718 FILLER_21_121
*719 FILLER_21_133
*720 FILLER_21_139
*721 FILLER_21_166
*722 FILLER_21_179
*723 FILLER_21_24
*724 FILLER_21_34
*725 FILLER_21_42
*726 FILLER_21_47
*727 FILLER_21_57
*728 FILLER_21_7
*729 FILLER_21_71
*730 FILLER_21_88
*731 FILLER_21_99
*732 FILLER_22_100
*733 FILLER_22_108
*734 FILLER_22_117
*735 FILLER_22_121
*736 FILLER_22_129
*737 FILLER_22_137
*738 FILLER_22_17
*739 FILLER_22_25
*740 FILLER_22_29
*741 FILLER_22_46
*742 FILLER_22_7
*743 FILLER_22_74
*744 FILLER_22_80
*745 FILLER_23_109
*746 FILLER_23_120
*747 FILLER_23_137
*748 FILLER_23_145
*749 FILLER_23_177
*750 FILLER_23_25
*751 FILLER_23_3
*752 FILLER_23_35
*753 FILLER_23_47
*754 FILLER_23_53
*755 FILLER_23_57
*756 FILLER_23_63
*757 FILLER_23_77
*758 FILLER_23_83
*759 FILLER_23_87
*760 FILLER_23_97
*761 FILLER_24_100
*762 FILLER_24_11
*763 FILLER_24_112
*764 FILLER_24_124
*765 FILLER_24_130
*766 FILLER_24_138
*767 FILLER_24_141
*768 FILLER_24_149
*769 FILLER_24_182
*770 FILLER_24_26
*771 FILLER_24_29
*772 FILLER_24_3
*773 FILLER_24_38
*774 FILLER_24_61
*775 FILLER_24_69
*776 FILLER_24_83
*777 FILLER_24_85
*778 FILLER_25_100
*779 FILLER_25_111
*780 FILLER_25_15
*781 FILLER_25_164
*782 FILLER_25_172
*783 FILLER_25_177
*784 FILLER_25_3
*785 FILLER_25_39
*786 FILLER_25_55
*787 FILLER_25_73
*788 FILLER_25_79
*789 FILLER_25_87
*790 FILLER_26_111
*791 FILLER_26_123
*792 FILLER_26_127
*793 FILLER_26_131
*794 FILLER_26_139
*795 FILLER_26_15
*796 FILLER_26_169
*797 FILLER_26_181
*798 FILLER_26_29
*799 FILLER_26_3
*800 FILLER_26_55
*801 FILLER_26_79
*802 FILLER_27_102
*803 FILLER_27_111
*804 FILLER_27_122
*805 FILLER_27_130
*806 FILLER_27_143
*807 FILLER_27_147
*808 FILLER_27_15
*809 FILLER_27_175
*810 FILLER_27_183
*811 FILLER_27_27
*812 FILLER_27_3
*813 FILLER_27_34
*814 FILLER_27_42
*815 FILLER_27_55
*816 FILLER_27_66
*817 FILLER_27_76
*818 FILLER_28_105
*819 FILLER_28_117
*820 FILLER_28_123
*821 FILLER_28_136
*822 FILLER_28_141
*823 FILLER_28_15
*824 FILLER_28_171
*825 FILLER_28_183
*826 FILLER_28_19
*827 FILLER_28_27
*828 FILLER_28_29
*829 FILLER_28_3
*830 FILLER_28_41
*831 FILLER_28_53
*832 FILLER_28_65
*833 FILLER_28_77
*834 FILLER_28_83
*835 FILLER_28_85
*836 FILLER_28_98
*837 FILLER_29_111
*838 FILLER_29_123
*839 FILLER_29_139
*840 FILLER_29_15
*841 FILLER_29_163
*842 FILLER_29_167
*843 FILLER_29_169
*844 FILLER_29_181
*845 FILLER_29_27
*846 FILLER_29_3
*847 FILLER_29_39
*848 FILLER_29_51
*849 FILLER_29_55
*850 FILLER_29_57
*851 FILLER_29_69
*852 FILLER_29_92
*853 FILLER_29_98
*854 FILLER_2_100
*855 FILLER_2_111
*856 FILLER_2_125
*857 FILLER_2_138
*858 FILLER_2_146
*859 FILLER_2_15
*860 FILLER_2_150
*861 FILLER_2_156
*862 FILLER_2_168
*863 FILLER_2_180
*864 FILLER_2_184
*865 FILLER_2_19
*866 FILLER_2_29
*867 FILLER_2_3
*868 FILLER_2_37
*869 FILLER_2_41
*870 FILLER_2_50
*871 FILLER_2_75
*872 FILLER_2_83
*873 FILLER_2_85
*874 FILLER_30_105
*875 FILLER_30_113
*876 FILLER_30_125
*877 FILLER_30_131
*878 FILLER_30_141
*879 FILLER_30_15
*880 FILLER_30_165
*881 FILLER_30_169
*882 FILLER_30_181
*883 FILLER_30_27
*884 FILLER_30_29
*885 FILLER_30_3
*886 FILLER_30_41
*887 FILLER_30_53
*888 FILLER_30_57
*889 FILLER_30_69
*890 FILLER_30_77
*891 FILLER_30_85
*892 FILLER_30_93
*893 FILLER_30_98
*894 FILLER_3_109
*895 FILLER_3_113
*896 FILLER_3_121
*897 FILLER_3_129
*898 FILLER_3_138
*899 FILLER_3_146
*900 FILLER_3_15
*901 FILLER_3_162
*902 FILLER_3_178
*903 FILLER_3_184
*904 FILLER_3_3
*905 FILLER_3_45
*906 FILLER_3_69
*907 FILLER_3_99
*908 FILLER_4_114
*909 FILLER_4_121
*910 FILLER_4_129
*911 FILLER_4_139
*912 FILLER_4_145
*913 FILLER_4_15
*914 FILLER_4_151
*915 FILLER_4_166
*916 FILLER_4_178
*917 FILLER_4_184
*918 FILLER_4_19
*919 FILLER_4_27
*920 FILLER_4_29
*921 FILLER_4_3
*922 FILLER_4_41
*923 FILLER_4_54
*924 FILLER_4_73
*925 FILLER_4_81
*926 FILLER_4_85
*927 FILLER_4_97
*928 FILLER_5_106
*929 FILLER_5_113
*930 FILLER_5_119
*931 FILLER_5_146
*932 FILLER_5_15
*933 FILLER_5_150
*934 FILLER_5_169
*935 FILLER_5_181
*936 FILLER_5_27
*937 FILLER_5_3
*938 FILLER_5_36
*939 FILLER_5_48
*940 FILLER_5_57
*941 FILLER_5_69
*942 FILLER_5_81
*943 FILLER_5_88
*944 FILLER_5_96
*945 FILLER_6_111
*946 FILLER_6_122
*947 FILLER_6_126
*948 FILLER_6_130
*949 FILLER_6_139
*950 FILLER_6_141
*951 FILLER_6_157
*952 FILLER_6_176
*953 FILLER_6_184
*954 FILLER_6_19
*955 FILLER_6_37
*956 FILLER_6_46
*957 FILLER_6_55
*958 FILLER_6_7
*959 FILLER_6_79
*960 FILLER_6_83
*961 FILLER_6_94
*962 FILLER_7_101
*963 FILLER_7_109
*964 FILLER_7_136
*965 FILLER_7_15
*966 FILLER_7_156
*967 FILLER_7_164
*968 FILLER_7_182
*969 FILLER_7_3
*970 FILLER_7_42
*971 FILLER_7_52
*972 FILLER_7_57
*973 FILLER_7_61
*974 FILLER_7_68
*975 FILLER_7_79
*976 FILLER_8_109
*977 FILLER_8_120
*978 FILLER_8_132
*979 FILLER_8_141
*980 FILLER_8_15
*981 FILLER_8_157
*982 FILLER_8_165
*983 FILLER_8_172
*984 FILLER_8_184
*985 FILLER_8_27
*986 FILLER_8_29
*987 FILLER_8_3
*988 FILLER_8_41
*989 FILLER_8_58
*990 FILLER_8_74
*991 FILLER_8_82
*992 FILLER_8_85
*993 FILLER_8_97
*994 FILLER_9_108
*995 FILLER_9_119
*996 FILLER_9_142
*997 FILLER_9_150
*998 FILLER_9_165
*999 FILLER_9_169
*1000 FILLER_9_176
*1001 FILLER_9_184
*1002 FILLER_9_22
*1003 FILLER_9_3
*1004 FILLER_9_38
*1005 FILLER_9_44
*1006 FILLER_9_52
*1007 FILLER_9_57
*1008 FILLER_9_65
*1009 FILLER_9_75
*1010 FILLER_9_83
*1011 FILLER_9_94
*1012 PHY_EDGE_ROW_0_Left_31
*1013 PHY_EDGE_ROW_0_Right_0
*1014 PHY_EDGE_ROW_10_Left_41
*1015 PHY_EDGE_ROW_10_Right_10
*1016 PHY_EDGE_ROW_11_Left_42
*1017 PHY_EDGE_ROW_11_Right_11
*1018 PHY_EDGE_ROW_12_Left_43
*1019 PHY_EDGE_ROW_12_Right_12
*1020 PHY_EDGE_ROW_13_Left_44
*1021 PHY_EDGE_ROW_13_Right_13
*1022 PHY_EDGE_ROW_14_Left_45
*1023 PHY_EDGE_ROW_14_Right_14
*1024 PHY_EDGE_ROW_15_Left_46
*1025 PHY_EDGE_ROW_15_Right_15
*1026 PHY_EDGE_ROW_16_Left_47
*1027 PHY_EDGE_ROW_16_Right_16
*1028 PHY_EDGE_ROW_17_Left_48
*1029 PHY_EDGE_ROW_17_Right_17
*1030 PHY_EDGE_ROW_18_Left_49
*1031 PHY_EDGE_ROW_18_Right_18
*1032 PHY_EDGE_ROW_19_Left_50
*1033 PHY_EDGE_ROW_19_Right_19
*1034 PHY_EDGE_ROW_1_Left_32
*1035 PHY_EDGE_ROW_1_Right_1
*1036 PHY_EDGE_ROW_20_Left_51
*1037 PHY_EDGE_ROW_20_Right_20
*1038 PHY_EDGE_ROW_21_Left_52
*1039 PHY_EDGE_ROW_21_Right_21
*1040 PHY_EDGE_ROW_22_Left_53
*1041 PHY_EDGE_ROW_22_Right_22
*1042 PHY_EDGE_ROW_23_Left_54
*1043 PHY_EDGE_ROW_23_Right_23
*1044 PHY_EDGE_ROW_24_Left_55
*1045 PHY_EDGE_ROW_24_Right_24
*1046 PHY_EDGE_ROW_25_Left_56
*1047 PHY_EDGE_ROW_25_Right_25
*1048 PHY_EDGE_ROW_26_Left_57
*1049 PHY_EDGE_ROW_26_Right_26
*1050 PHY_EDGE_ROW_27_Left_58
*1051 PHY_EDGE_ROW_27_Right_27
*1052 PHY_EDGE_ROW_28_Left_59
*1053 PHY_EDGE_ROW_28_Right_28
*1054 PHY_EDGE_ROW_29_Left_60
*1055 PHY_EDGE_ROW_29_Right_29
*1056 PHY_EDGE_ROW_2_Left_33
*1057 PHY_EDGE_ROW_2_Right_2
*1058 PHY_EDGE_ROW_30_Left_61
*1059 PHY_EDGE_ROW_30_Right_30
*1060 PHY_EDGE_ROW_3_Left_34
*1061 PHY_EDGE_ROW_3_Right_3
*1062 PHY_EDGE_ROW_4_Left_35
*1063 PHY_EDGE_ROW_4_Right_4
*1064 PHY_EDGE_ROW_5_Left_36
*1065 PHY_EDGE_ROW_5_Right_5
*1066 PHY_EDGE_ROW_6_Left_37
*1067 PHY_EDGE_ROW_6_Right_6
*1068 PHY_EDGE_ROW_7_Left_38
*1069 PHY_EDGE_ROW_7_Right_7
*1070 PHY_EDGE_ROW_8_Left_39
*1071 PHY_EDGE_ROW_8_Right_8
*1072 PHY_EDGE_ROW_9_Left_40
*1073 PHY_EDGE_ROW_9_Right_9
*1074 TAP_TAPCELL_ROW_0_62
*1075 TAP_TAPCELL_ROW_0_63
*1076 TAP_TAPCELL_ROW_0_64
*1077 TAP_TAPCELL_ROW_0_65
*1078 TAP_TAPCELL_ROW_0_66
*1079 TAP_TAPCELL_ROW_0_67
*1080 TAP_TAPCELL_ROW_10_95
*1081 TAP_TAPCELL_ROW_10_96
*1082 TAP_TAPCELL_ROW_10_97
*1083 TAP_TAPCELL_ROW_11_100
*1084 TAP_TAPCELL_ROW_11_98
*1085 TAP_TAPCELL_ROW_11_99
*1086 TAP_TAPCELL_ROW_12_101
*1087 TAP_TAPCELL_ROW_12_102
*1088 TAP_TAPCELL_ROW_12_103
*1089 TAP_TAPCELL_ROW_13_104
*1090 TAP_TAPCELL_ROW_13_105
*1091 TAP_TAPCELL_ROW_13_106
*1092 TAP_TAPCELL_ROW_14_107
*1093 TAP_TAPCELL_ROW_14_108
*1094 TAP_TAPCELL_ROW_14_109
*1095 TAP_TAPCELL_ROW_15_110
*1096 TAP_TAPCELL_ROW_15_111
*1097 TAP_TAPCELL_ROW_15_112
*1098 TAP_TAPCELL_ROW_16_113
*1099 TAP_TAPCELL_ROW_16_114
*1100 TAP_TAPCELL_ROW_16_115
*1101 TAP_TAPCELL_ROW_17_116
*1102 TAP_TAPCELL_ROW_17_117
*1103 TAP_TAPCELL_ROW_17_118
*1104 TAP_TAPCELL_ROW_18_119
*1105 TAP_TAPCELL_ROW_18_120
*1106 TAP_TAPCELL_ROW_18_121
*1107 TAP_TAPCELL_ROW_19_122
*1108 TAP_TAPCELL_ROW_19_123
*1109 TAP_TAPCELL_ROW_19_124
*1110 TAP_TAPCELL_ROW_1_68
*1111 TAP_TAPCELL_ROW_1_69
*1112 TAP_TAPCELL_ROW_1_70
*1113 TAP_TAPCELL_ROW_20_125
*1114 TAP_TAPCELL_ROW_20_126
*1115 TAP_TAPCELL_ROW_20_127
*1116 TAP_TAPCELL_ROW_21_128
*1117 TAP_TAPCELL_ROW_21_129
*1118 TAP_TAPCELL_ROW_21_130
*1119 TAP_TAPCELL_ROW_22_131
*1120 TAP_TAPCELL_ROW_22_132
*1121 TAP_TAPCELL_ROW_22_133
*1122 TAP_TAPCELL_ROW_23_134
*1123 TAP_TAPCELL_ROW_23_135
*1124 TAP_TAPCELL_ROW_23_136
*1125 TAP_TAPCELL_ROW_24_137
*1126 TAP_TAPCELL_ROW_24_138
*1127 TAP_TAPCELL_ROW_24_139
*1128 TAP_TAPCELL_ROW_25_140
*1129 TAP_TAPCELL_ROW_25_141
*1130 TAP_TAPCELL_ROW_25_142
*1131 TAP_TAPCELL_ROW_26_143
*1132 TAP_TAPCELL_ROW_26_144
*1133 TAP_TAPCELL_ROW_26_145
*1134 TAP_TAPCELL_ROW_27_146
*1135 TAP_TAPCELL_ROW_27_147
*1136 TAP_TAPCELL_ROW_27_148
*1137 TAP_TAPCELL_ROW_28_149
*1138 TAP_TAPCELL_ROW_28_150
*1139 TAP_TAPCELL_ROW_28_151
*1140 TAP_TAPCELL_ROW_29_152
*1141 TAP_TAPCELL_ROW_29_153
*1142 TAP_TAPCELL_ROW_29_154
*1143 TAP_TAPCELL_ROW_2_71
*1144 TAP_TAPCELL_ROW_2_72
*1145 TAP_TAPCELL_ROW_2_73
*1146 TAP_TAPCELL_ROW_30_155
*1147 TAP_TAPCELL_ROW_30_156
*1148 TAP_TAPCELL_ROW_30_157
*1149 TAP_TAPCELL_ROW_30_158
*1150 TAP_TAPCELL_ROW_30_159
*1151 TAP_TAPCELL_ROW_30_160
*1152 TAP_TAPCELL_ROW_3_74
*1153 TAP_TAPCELL_ROW_3_75
*1154 TAP_TAPCELL_ROW_3_76
*1155 TAP_TAPCELL_ROW_4_77
*1156 TAP_TAPCELL_ROW_4_78
*1157 TAP_TAPCELL_ROW_4_79
*1158 TAP_TAPCELL_ROW_5_80
*1159 TAP_TAPCELL_ROW_5_81
*1160 TAP_TAPCELL_ROW_5_82
*1161 TAP_TAPCELL_ROW_6_83
*1162 TAP_TAPCELL_ROW_6_84
*1163 TAP_TAPCELL_ROW_6_85
*1164 TAP_TAPCELL_ROW_7_86
*1165 TAP_TAPCELL_ROW_7_87
*1166 TAP_TAPCELL_ROW_7_88
*1167 TAP_TAPCELL_ROW_8_89
*1168 TAP_TAPCELL_ROW_8_90
*1169 TAP_TAPCELL_ROW_8_91
*1170 TAP_TAPCELL_ROW_9_92
*1171 TAP_TAPCELL_ROW_9_93
*1172 TAP_TAPCELL_ROW_9_94
*1173 _391_
*1174 _392_
*1175 _393_
*1176 _394_
*1177 _395_
*1178 _396_
*1179 _397_
*1180 _398_
*1181 _399_
*1182 _400_
*1183 _401_
*1184 _402_
*1185 _403_
*1186 _404_
*1187 _405_
*1188 _406_
*1189 _407_
*1190 _408_
*1191 _409_
*1192 _410_
*1193 _411_
*1194 _412_
*1195 _413_
*1196 _414_
*1197 _415_
*1198 _416_
*1199 _417_
*1200 _418_
*1201 _419_
*1202 _420_
*1203 _421_
*1204 _422_
*1205 _423_
*1206 _424_
*1207 _425_
*1208 _426_
*1209 _427_
*1210 _428_
*1211 _429_
*1212 _430_
*1213 _431_
*1214 _432_
*1215 _433_
*1216 _434_
*1217 _435_
*1218 _436_
*1219 _437_
*1220 _438_
*1221 _439_
*1222 _440_
*1223 _441_
*1224 _442_
*1225 _443_
*1226 _444_
*1227 _445_
*1228 _446_
*1229 _447_
*1230 _448_
*1231 _449_
*1232 _450_
*1233 _451_
*1234 _452_
*1235 _453_
*1236 _454_
*1237 _455_
*1238 _456_
*1239 _457_
*1240 _458_
*1241 _459_
*1242 _460_
*1243 _461_
*1244 _462_
*1245 _463_
*1246 _464_
*1247 _465_
*1248 _466_
*1249 _467_
*1250 _468_
*1251 _469_
*1252 _470_
*1253 _471_
*1254 _472_
*1255 _473_
*1256 _474_
*1257 _475_
*1258 _476_
*1259 _477_
*1260 _478_
*1261 _479_
*1262 _480_
*1263 _481_
*1264 _482_
*1265 _483_
*1266 _484_
*1267 _485_
*1268 _486_
*1269 _487_
*1270 _488_
*1271 _489_
*1272 _490_
*1273 _491_
*1274 _492_
*1275 _493_
*1276 _494_
*1277 _495_
*1278 _496_
*1279 _497_
*1280 _498_
*1281 _499_
*1282 _500_
*1283 _501_
*1284 _502_
*1285 _503_
*1286 _504_
*1287 _505_
*1288 _506_
*1289 _507_
*1290 _508_
*1291 _509_
*1292 _510_
*1293 _511_
*1294 _512_
*1295 _513_
*1296 _514_
*1297 _515_
*1298 _516_
*1299 _517_
*1300 _518_
*1301 _519_
*1302 _520_
*1303 _521_
*1304 _522_
*1305 _523_
*1306 _524_
*1307 _525_
*1308 _526_
*1309 _527_
*1310 _528_
*1311 _529_
*1312 _530_
*1313 _531_
*1314 _532_
*1315 _533_
*1316 _534_
*1317 _535_
*1318 _536_
*1319 _537_
*1320 _538_
*1321 _539_
*1322 _540_
*1323 _541_
*1324 _542_
*1325 _543_
*1326 _544_
*1327 _545_
*1328 _546_
*1329 _547_
*1330 _548_
*1331 _549_
*1332 _550_
*1333 _551_
*1334 _552_
*1335 _553_
*1336 _554_
*1337 _555_
*1338 _556_
*1339 _557_
*1340 _558_
*1341 _559_
*1342 _560_
*1343 _561_
*1344 _562_
*1345 _563_
*1346 _564_
*1347 _565_
*1348 _566_
*1349 _567_
*1350 _568_
*1351 _569_
*1352 _570_
*1353 _571_
*1354 _572_
*1355 _573_
*1356 _574_
*1357 _575_
*1358 _576_
*1359 _577_
*1360 _578_
*1361 _579_
*1362 _580_
*1363 _581_
*1364 _582_
*1365 _583_
*1366 _584_
*1367 _585_
*1368 _586_
*1369 _587_
*1370 _588_
*1371 _589_
*1372 _590_
*1373 _591_
*1374 _592_
*1375 _593_
*1376 _594_
*1377 _595_
*1378 _596_
*1379 _597_
*1380 _598_
*1381 _599_
*1382 _600_
*1383 _601_
*1384 _602_
*1385 _603_
*1386 _604_
*1387 _605_
*1388 _606_
*1389 _607_
*1390 _608_
*1391 _609_
*1392 _610_
*1393 _611_
*1394 _612_
*1395 _613_
*1396 _614_
*1397 _615_
*1398 _616_
*1399 _617_
*1400 _618_
*1401 _619_
*1402 _620_
*1403 _621_
*1404 _622_
*1405 _623_
*1406 _624_
*1407 _625_
*1408 _626_
*1409 _627_
*1410 _628_
*1411 _629_
*1412 _630_
*1413 _631_
*1414 _632_
*1415 _633_
*1416 _634_
*1417 _635_
*1418 _636_
*1419 _637_
*1420 _638_
*1421 _639_
*1422 _640_
*1423 _641_
*1424 _642_
*1425 _643_
*1426 _644_
*1427 _645_
*1428 _646_
*1429 _647_
*1430 _648_
*1431 _649_
*1432 _650_
*1433 _651_
*1434 _652_
*1435 _653_
*1436 _654_
*1437 _655_
*1438 _656_
*1439 _657_
*1440 _658_
*1441 _659_
*1442 _660_
*1443 _661_
*1444 _662_
*1445 _663_
*1446 _664_
*1447 _665_
*1448 _666_
*1449 _667_
*1450 _668_
*1451 _669_
*1452 _670_
*1453 _671_
*1454 _672_
*1455 _673_
*1456 _674_
*1457 _675_
*1458 _676_
*1459 _677_
*1460 _678_
*1461 _679_
*1462 _680_
*1463 _681_
*1464 _682_
*1465 _683_
*1466 _684_
*1467 _685_
*1468 _686_
*1469 _687_
*1470 _688_
*1471 _689_
*1472 _690_
*1473 _691_
*1474 _692_
*1475 _693_
*1476 _694_
*1477 _695_
*1478 _696_
*1479 _697_
*1480 _698_
*1481 _699_
*1482 _700_
*1483 _701_
*1484 _702_
*1485 _703_
*1486 _704_
*1487 _705_
*1488 _706_
*1489 _707_
*1490 _708_
*1491 _709_
*1492 _710_
*1493 _711_
*1494 _712_
*1495 _713_
*1496 _714_
*1497 _715_
*1498 _716_
*1499 _717_
*1500 _718_
*1501 _719_
*1502 _720_
*1503 _721_
*1504 _722_
*1505 _723_
*1506 _724_
*1507 _725_
*1508 _726_
*1509 _727_
*1510 _728_
*1511 _729_
*1512 _730_
*1513 _731_
*1514 _732_
*1515 _733_
*1516 _734_
*1517 _735_
*1518 _736_
*1519 _737_
*1520 _738_
*1521 _739_
*1522 _740_
*1523 _741_
*1524 _742_
*1525 _743_
*1526 _744_
*1527 _745_
*1528 _746_
*1529 _747_
*1530 _748_
*1531 _749_
*1532 _750_
*1533 _751_
*1534 _752_
*1535 _753_
*1536 _754_
*1537 _755_
*1538 _756_
*1539 _757_
*1540 _758_
*1541 _759_
*1542 _760_
*1543 _761_
*1544 _762_
*1545 _763_
*1546 _764_
*1547 _765_
*1548 _766_
*1549 _767_
*1550 _768_
*1551 _769_
*1552 _770_
*1553 _771_
*1554 _772_
*1555 _773_
*1556 _774_
*1557 _775_
*1558 _776_
*1559 _777_
*1560 _778_
*1561 _779_
*1562 _780_
*1563 _781_
*1564 _782_
*1565 _783_
*1566 _784_
*1567 _785_
*1568 _786_
*1569 _787_
*1570 _788_
*1571 _789_
*1572 _790_
*1573 _791_
*1574 _792_
*1575 _793_
*1576 _794_
*1577 _795_
*1578 _796_
*1579 _797_
*1580 _798_
*1581 _799_
*1582 _800_
*1583 _801_
*1584 _802_
*1585 _803_
*1586 _804_
*1587 _805_
*1588 clkbuf_0_clk
*1589 clkbuf_1_0__f_clk
*1590 clkbuf_1_1__f_clk
*1591 fanout19
*1592 fanout20
*1593 fanout21
*1594 fanout22
*1595 fanout23
*1596 fanout24
*1597 fanout25
*1598 fanout26
*1599 fanout27
*1600 fanout28
*1601 fanout29
*1602 fanout30
*1603 fanout31
*1604 fanout32
*1605 fanout33
*1606 fanout34
*1607 fanout35
*1608 fanout36
*1609 fanout37
*1610 fanout38
*1611 fanout39
*1612 fanout40
*1613 fanout41
*1614 fanout42
*1615 fanout43
*1616 fanout44
*1617 fanout45
*1618 fanout46
*1619 fanout47
*1620 fanout48
*1621 fanout49
*1622 fanout50
*1623 fanout51
*1624 fanout52
*1625 fanout53
*1626 fanout54
*1627 fanout55
*1628 fanout56
*1629 fanout57
*1630 fanout58
*1631 fanout59
*1632 fanout60
*1633 fanout61
*1634 fanout62
*1635 fanout63
*1636 fanout64
*1637 fanout65
*1638 fanout66
*1639 fanout67
*1640 fanout68
*1641 fanout69
*1642 fanout70
*1643 fanout71
*1644 fanout72
*1645 input1
*1646 max_cap18
*1647 output10
*1648 output11
*1649 output12
*1650 output13
*1651 output14
*1652 output15
*1653 output16
*1654 output17
*1655 output2
*1656 output3
*1657 output4
*1658 output5
*1659 output6
*1660 output7
*1661 output8
*1662 output9

*PORTS
clk I
rst I
sine_out[0] O
sine_out[10] O
sine_out[11] O
sine_out[12] O
sine_out[13] O
sine_out[14] O
sine_out[15] O
sine_out[1] O
sine_out[2] O
sine_out[3] O
sine_out[4] O
sine_out[5] O
sine_out[6] O
sine_out[7] O
sine_out[8] O
sine_out[9] O

*D_NET *3 0.00264383
*CONN
*P clk I
*I *1588:A I *D sky130_fd_sc_hd__clkbuf_16
*CAP
1 clk 0.000770728
2 *1588:A 0.000770728
3 *1588:A sine_out[11] 0.000191094
4 *1588:A *1230:B1_N 5.06983e-05
5 *1588:A *1542:A1 0.000178847
6 *1588:A *1542:B1 9.41642e-05
7 *1588:A *1583:CLK 7.51656e-05
8 *1588:A *1632:A 5.52238e-05
9 *1588:A *1645:A 2.06112e-05
10 *1588:A *413:32 6.42155e-05
11 *1588:A *415:6 0.000212153
12 *1588:A *415:16 9.60875e-05
13 *1588:A *471:6 6.41179e-05
*RES
1 clk *1588:A 31.3014 
*END

*D_NET *4 0.000514803
*CONN
*P rst I
*I *1645:A I *D sky130_fd_sc_hd__clkbuf_4
*CAP
1 rst 0.000196126
2 *1645:A 0.000196126
3 *1645:A sine_out[11] 8.97528e-05
4 *1645:A *1583:CLK 1.21859e-05
5 *1588:A *1645:A 2.06112e-05
*RES
1 rst *1645:A 18.1949 
*END

*D_NET *5 0.00107072
*CONN
*P sine_out[0] O
*I *1655:X O *D sky130_fd_sc_hd__buf_2
*CAP
1 sine_out[0] 0.00053536
2 *1655:X 0.00053536
3 sine_out[0] sine_out[12] 0
*RES
1 *1655:X sine_out[0] 24.4786 
*END

*D_NET *6 0.000495387
*CONN
*P sine_out[10] O
*I *1656:X O *D sky130_fd_sc_hd__buf_2
*CAP
1 sine_out[10] 0.000247693
2 *1656:X 0.000247693
*RES
1 *1656:X sine_out[10] 18.1949 
*END

*D_NET *7 0.000756643
*CONN
*P sine_out[11] O
*I *1657:X O *D sky130_fd_sc_hd__buf_2
*CAP
1 sine_out[11] 0.000208154
2 *1657:X 0.000208154
3 sine_out[11] *413:32 5.94884e-05
4 *1588:A sine_out[11] 0.000191094
5 *1645:A sine_out[11] 8.97528e-05
*RES
1 *1657:X sine_out[11] 19.4092 
*END

*D_NET *8 0.00107072
*CONN
*P sine_out[12] O
*I *1658:X O *D sky130_fd_sc_hd__buf_2
*CAP
1 sine_out[12] 0.00053536
2 *1658:X 0.00053536
3 sine_out[0] sine_out[12] 0
*RES
1 *1658:X sine_out[12] 24.4786 
*END

*D_NET *9 0.00135161
*CONN
*P sine_out[13] O
*I *1659:X O *D sky130_fd_sc_hd__buf_2
*CAP
1 sine_out[13] 0.000500279
2 *1659:X 0.000500279
3 sine_out[13] sine_out[15] 0.000303941
4 sine_out[13] *1564:A 1.03968e-05
5 sine_out[13] *1659:A 3.67142e-05
*RES
1 *1659:X sine_out[13] 25.425 
*END

*D_NET *10 0.00107072
*CONN
*P sine_out[14] O
*I *1660:X O *D sky130_fd_sc_hd__buf_2
*CAP
1 sine_out[14] 0.00053536
2 *1660:X 0.00053536
3 sine_out[14] sine_out[15] 0
*RES
1 *1660:X sine_out[14] 24.4786 
*END

*D_NET *11 0.00110627
*CONN
*P sine_out[15] O
*I *1661:X O *D sky130_fd_sc_hd__buf_2
*CAP
1 sine_out[15] 0.000401164
2 *1661:X 0.000401164
3 sine_out[13] sine_out[15] 0.000303941
4 sine_out[14] sine_out[15] 0
*RES
1 *1661:X sine_out[15] 24.4786 
*END

*D_NET *12 0.000950737
*CONN
*P sine_out[1] O
*I *1662:X O *D sky130_fd_sc_hd__buf_2
*CAP
1 sine_out[1] 0.000475368
2 *1662:X 0.000475368
3 sine_out[1] sine_out[9] 0
*RES
1 *1662:X sine_out[1] 22.05 
*END

*D_NET *13 0.000880645
*CONN
*P sine_out[2] O
*I *1647:X O *D sky130_fd_sc_hd__buf_2
*CAP
1 sine_out[2] 0.000440323
2 *1647:X 0.000440323
*RES
1 *1647:X sine_out[2] 21.6393 
*END

*D_NET *14 0.000540674
*CONN
*P sine_out[3] O
*I *1648:X O *D sky130_fd_sc_hd__buf_2
*CAP
1 sine_out[3] 0.000258892
2 *1648:X 0.000258892
3 sine_out[3] *477:124 2.28904e-05
*RES
1 *1648:X sine_out[3] 18.8021 
*END

*D_NET *15 0.0016218
*CONN
*P sine_out[4] O
*I *1649:X O *D sky130_fd_sc_hd__buf_2
*CAP
1 sine_out[4] 0.000751402
2 *1649:X 0.000751402
3 sine_out[4] *1604:A 2.65105e-05
4 sine_out[4] *1649:A 9.24825e-05
*RES
1 *1649:X sine_out[4] 27.4786 
*END

*D_NET *16 0.000523661
*CONN
*P sine_out[5] O
*I *1650:X O *D sky130_fd_sc_hd__buf_2
*CAP
1 sine_out[5] 0.000240224
2 *1650:X 0.000240224
3 sine_out[5] sine_out[7] 2.25951e-05
4 sine_out[5] *1417:A1 2.06178e-05
*RES
1 *1650:X sine_out[5] 18.1949 
*END

*D_NET *17 0.00096179
*CONN
*P sine_out[6] O
*I *1651:X O *D sky130_fd_sc_hd__buf_2
*CAP
1 sine_out[6] 0.000466439
2 *1651:X 0.000466439
3 sine_out[6] *1651:A 2.89114e-05
*RES
1 *1651:X sine_out[6] 22.05 
*END

*D_NET *18 0.00064344
*CONN
*P sine_out[7] O
*I *1652:X O *D sky130_fd_sc_hd__buf_2
*CAP