* NGSPICE file created from counter_8bit.ext - technology: sky130A

* Black-box entry subcircuit for sky130_fd_sc_hd__tapvpwrvgnd_1 abstract view
.subckt sky130_fd_sc_hd__tapvpwrvgnd_1 VGND VPWR
.ends

* Black-box entry subcircuit for sky130_fd_sc_hd__decap_3 abstract view
.subckt sky130_fd_sc_hd__decap_3 VGND VNB VPB VPWR
.ends

* Black-box entry subcircuit for sky130_fd_sc_hd__and2_1 abstract view
.subckt sky130_fd_sc_hd__and2_1 A B VGND VNB VPB VPWR X
.ends

* Black-box entry subcircuit for sky130_fd_sc_hd__fill_1 abstract view
.subckt sky130_fd_sc_hd__fill_1 VGND VNB VPB VPWR
.ends

* Black-box entry subcircuit for sky130_fd_sc_hd__nand2b_1 abstract view
.subckt sky130_fd_sc_hd__nand2b_1 A_N B VGND VNB VPB VPWR Y
.ends

* Black-box entry subcircuit for sky130_fd_sc_hd__decap_4 abstract view
.subckt sky130_fd_sc_hd__decap_4 VGND VNB VPB VPWR
.ends

* Black-box entry subcircuit for sky130_fd_sc_hd__fill_2 abstract view
.subckt sky130_fd_sc_hd__fill_2 VGND VNB VPB VPWR
.ends

* Black-box entry subcircuit for sky130_fd_sc_hd__decap_6 abstract view
.subckt sky130_fd_sc_hd__decap_6 VGND VNB VPB VPWR
.ends

* Black-box entry subcircuit for sky130_fd_sc_hd__a311o_1 abstract view
.subckt sky130_fd_sc_hd__a311o_1 A1 A2 A3 B1 C1 VGND VNB VPB VPWR X
.ends

* Black-box entry subcircuit for sky130_fd_sc_hd__dfrtp_1 abstract view
.subckt sky130_fd_sc_hd__dfrtp_1 CLK D RESET_B VGND VNB VPB VPWR Q
.ends

* Black-box entry subcircuit for sky130_fd_sc_hd__nand2_1 abstract view
.subckt sky130_fd_sc_hd__nand2_1 A B VGND VNB VPB VPWR Y
.ends

* Black-box entry subcircuit for sky130_fd_sc_hd__a22o_1 abstract view
.subckt sky130_fd_sc_hd__a22o_1 A1 A2 B1 B2 VGND VNB VPB VPWR X
.ends

* Black-box entry subcircuit for sky130_fd_sc_hd__o211a_1 abstract view
.subckt sky130_fd_sc_hd__o211a_1 A1 A2 B1 C1 VGND VNB VPB VPWR X
.ends

* Black-box entry subcircuit for sky130_fd_sc_hd__buf_2 abstract view
.subckt sky130_fd_sc_hd__buf_2 A VGND VNB VPB VPWR X
.ends

* Black-box entry subcircuit for sky130_fd_sc_hd__a31o_1 abstract view
.subckt sky130_fd_sc_hd__a31o_1 A1 A2 A3 B1 VGND VNB VPB VPWR X
.ends

* Black-box entry subcircuit for sky130_fd_sc_hd__or2_2 abstract view
.subckt sky130_fd_sc_hd__or2_2 A B VGND VNB VPB VPWR X
.ends

* Black-box entry subcircuit for sky130_fd_sc_hd__or3_1 abstract view
.subckt sky130_fd_sc_hd__or3_1 A B C VGND VNB VPB VPWR X
.ends

* Black-box entry subcircuit for sky130_ef_sc_hd__decap_12 abstract view
.subckt sky130_ef_sc_hd__decap_12 VPWR VGND VPB VNB
.ends

* Black-box entry subcircuit for sky130_fd_sc_hd__dfrtp_2 abstract view
.subckt sky130_fd_sc_hd__dfrtp_2 CLK D RESET_B VGND VNB VPB VPWR Q
.ends

* Black-box entry subcircuit for sky130_fd_sc_hd__a211o_1 abstract view
.subckt sky130_fd_sc_hd__a211o_1 A1 A2 B1 C1 VGND VNB VPB VPWR X
.ends

* Black-box entry subcircuit for sky130_fd_sc_hd__a21oi_2 abstract view
.subckt sky130_fd_sc_hd__a21oi_2 A1 A2 B1 VGND VNB VPB VPWR Y
.ends

* Black-box entry subcircuit for sky130_fd_sc_hd__a32o_1 abstract view
.subckt sky130_fd_sc_hd__a32o_1 A1 A2 A3 B1 B2 VGND VNB VPB VPWR X
.ends

* Black-box entry subcircuit for sky130_fd_sc_hd__or3b_1 abstract view
.subckt sky130_fd_sc_hd__or3b_1 A B C_N VGND VNB VPB VPWR X
.ends

* Black-box entry subcircuit for sky130_fd_sc_hd__o31a_1 abstract view
.subckt sky130_fd_sc_hd__o31a_1 A1 A2 A3 B1 VGND VNB VPB VPWR X
.ends

* Black-box entry subcircuit for sky130_fd_sc_hd__decap_8 abstract view
.subckt sky130_fd_sc_hd__decap_8 VGND VNB VPB VPWR
.ends

* Black-box entry subcircuit for sky130_fd_sc_hd__nand2b_4 abstract view
.subckt sky130_fd_sc_hd__nand2b_4 A_N B VGND VNB VPB VPWR Y
.ends

* Black-box entry subcircuit for sky130_fd_sc_hd__a21oi_1 abstract view
.subckt sky130_fd_sc_hd__a21oi_1 A1 A2 B1 VGND VNB VPB VPWR Y
.ends

* Black-box entry subcircuit for sky130_fd_sc_hd__o311a_1 abstract view
.subckt sky130_fd_sc_hd__o311a_1 A1 A2 A3 B1 C1 VGND VNB VPB VPWR X
.ends

* Black-box entry subcircuit for sky130_fd_sc_hd__o221a_1 abstract view
.subckt sky130_fd_sc_hd__o221a_1 A1 A2 B1 B2 C1 VGND VNB VPB VPWR X
.ends

* Black-box entry subcircuit for sky130_fd_sc_hd__o21a_1 abstract view
.subckt sky130_fd_sc_hd__o21a_1 A1 A2 B1 VGND VNB VPB VPWR X
.ends

* Black-box entry subcircuit for sky130_fd_sc_hd__and4b_1 abstract view
.subckt sky130_fd_sc_hd__and4b_1 A_N B C D VGND VNB VPB VPWR X
.ends

* Black-box entry subcircuit for sky130_fd_sc_hd__a21o_1 abstract view
.subckt sky130_fd_sc_hd__a21o_1 A1 A2 B1 VGND VNB VPB VPWR X
.ends

* Black-box entry subcircuit for sky130_fd_sc_hd__a221oi_1 abstract view
.subckt sky130_fd_sc_hd__a221oi_1 A1 A2 B1 B2 C1 VGND VNB VPB VPWR Y
.ends

* Black-box entry subcircuit for sky130_fd_sc_hd__nand2b_2 abstract view
.subckt sky130_fd_sc_hd__nand2b_2 A_N B VGND VNB VPB VPWR Y
.ends

* Black-box entry subcircuit for sky130_fd_sc_hd__a221o_1 abstract view
.subckt sky130_fd_sc_hd__a221o_1 A1 A2 B1 B2 C1 VGND VNB VPB VPWR X
.ends

* Black-box entry subcircuit for sky130_fd_sc_hd__and2b_1 abstract view
.subckt sky130_fd_sc_hd__and2b_1 A_N B VGND VNB VPB VPWR X
.ends

* Black-box entry subcircuit for sky130_fd_sc_hd__a21bo_1 abstract view
.subckt sky130_fd_sc_hd__a21bo_1 A1 A2 B1_N VGND VNB VPB VPWR X
.ends

* Black-box entry subcircuit for sky130_fd_sc_hd__or2_1 abstract view
.subckt sky130_fd_sc_hd__or2_1 A B VGND VNB VPB VPWR X
.ends

* Black-box entry subcircuit for sky130_fd_sc_hd__or4_1 abstract view
.subckt sky130_fd_sc_hd__or4_1 A B C D VGND VNB VPB VPWR X
.ends

* Black-box entry subcircuit for sky130_fd_sc_hd__nand2_4 abstract view
.subckt sky130_fd_sc_hd__nand2_4 A B VGND VNB VPB VPWR Y
.ends

* Black-box entry subcircuit for sky130_fd_sc_hd__and3b_1 abstract view
.subckt sky130_fd_sc_hd__and3b_1 A_N B C VGND VNB VPB VPWR X
.ends

* Black-box entry subcircuit for sky130_fd_sc_hd__buf_4 abstract view
.subckt sky130_fd_sc_hd__buf_4 A VGND VNB VPB VPWR X
.ends

* Black-box entry subcircuit for sky130_fd_sc_hd__xnor2_1 abstract view
.subckt sky130_fd_sc_hd__xnor2_1 A B VGND VNB VPB VPWR Y
.ends

* Black-box entry subcircuit for sky130_fd_sc_hd__nor2_4 abstract view
.subckt sky130_fd_sc_hd__nor2_4 A B VGND VNB VPB VPWR Y
.ends

* Black-box entry subcircuit for sky130_fd_sc_hd__nor4_1 abstract view
.subckt sky130_fd_sc_hd__nor4_1 A B C D VGND VNB VPB VPWR Y
.ends

* Black-box entry subcircuit for sky130_fd_sc_hd__a41o_1 abstract view
.subckt sky130_fd_sc_hd__a41o_1 A1 A2 A3 A4 B1 VGND VNB VPB VPWR X
.ends

* Black-box entry subcircuit for sky130_fd_sc_hd__nor2_1 abstract view
.subckt sky130_fd_sc_hd__nor2_1 A B VGND VNB VPB VPWR Y
.ends

* Black-box entry subcircuit for sky130_fd_sc_hd__clkbuf_2 abstract view
.subckt sky130_fd_sc_hd__clkbuf_2 A VGND VNB VPB VPWR X
.ends

* Black-box entry subcircuit for sky130_fd_sc_hd__and3_1 abstract view
.subckt sky130_fd_sc_hd__and3_1 A B C VGND VNB VPB VPWR X
.ends

* Black-box entry subcircuit for sky130_fd_sc_hd__clkbuf_16 abstract view
.subckt sky130_fd_sc_hd__clkbuf_16 A VGND VNB VPB VPWR X
.ends

* Black-box entry subcircuit for sky130_fd_sc_hd__inv_2 abstract view
.subckt sky130_fd_sc_hd__inv_2 A VGND VNB VPB VPWR Y
.ends

* Black-box entry subcircuit for sky130_fd_sc_hd__a2bb2o_1 abstract view
.subckt sky130_fd_sc_hd__a2bb2o_1 A1_N A2_N B1 B2 VGND VNB VPB VPWR X
.ends

* Black-box entry subcircuit for sky130_fd_sc_hd__clkbuf_4 abstract view
.subckt sky130_fd_sc_hd__clkbuf_4 A VGND VNB VPB VPWR X
.ends

* Black-box entry subcircuit for sky130_fd_sc_hd__o41a_1 abstract view
.subckt sky130_fd_sc_hd__o41a_1 A1 A2 A3 A4 B1 VGND VNB VPB VPWR X
.ends

* Black-box entry subcircuit for sky130_fd_sc_hd__o32ai_1 abstract view
.subckt sky130_fd_sc_hd__o32ai_1 A1 A2 A3 B1 B2 VGND VNB VPB VPWR Y
.ends

* Black-box entry subcircuit for sky130_fd_sc_hd__dlymetal6s2s_1 abstract view
.subckt sky130_fd_sc_hd__dlymetal6s2s_1 A VGND VNB VPB VPWR X
.ends

* Black-box entry subcircuit for sky130_fd_sc_hd__a21bo_2 abstract view
.subckt sky130_fd_sc_hd__a21bo_2 A1 A2 B1_N VGND VNB VPB VPWR X
.ends

* Black-box entry subcircuit for sky130_fd_sc_hd__nor3_1 abstract view
.subckt sky130_fd_sc_hd__nor3_1 A B C VGND VNB VPB VPWR Y
.ends

* Black-box entry subcircuit for sky130_fd_sc_hd__o2bb2a_1 abstract view
.subckt sky130_fd_sc_hd__o2bb2a_1 A1_N A2_N B1 B2 VGND VNB VPB VPWR X
.ends

* Black-box entry subcircuit for sky130_fd_sc_hd__o22a_1 abstract view
.subckt sky130_fd_sc_hd__o22a_1 A1 A2 B1 B2 VGND VNB VPB VPWR X
.ends

* Black-box entry subcircuit for sky130_fd_sc_hd__and2b_2 abstract view
.subckt sky130_fd_sc_hd__and2b_2 A_N B VGND VNB VPB VPWR X
.ends

* Black-box entry subcircuit for sky130_fd_sc_hd__o31ai_1 abstract view
.subckt sky130_fd_sc_hd__o31ai_1 A1 A2 A3 B1 VGND VNB VPB VPWR Y
.ends

* Black-box entry subcircuit for sky130_fd_sc_hd__o211ai_1 abstract view
.subckt sky130_fd_sc_hd__o211ai_1 A1 A2 B1 C1 VGND VNB VPB VPWR Y
.ends

* Black-box entry subcircuit for sky130_fd_sc_hd__o211ai_2 abstract view
.subckt sky130_fd_sc_hd__o211ai_2 A1 A2 B1 C1 VGND VNB VPB VPWR Y
.ends

* Black-box entry subcircuit for sky130_fd_sc_hd__buf_1 abstract view
.subckt sky130_fd_sc_hd__buf_1 A VGND VNB VPB VPWR X
.ends

* Black-box entry subcircuit for sky130_fd_sc_hd__o21ba_4 abstract view
.subckt sky130_fd_sc_hd__o21ba_4 A1 A2 B1_N VGND VNB VPB VPWR X
.ends

* Black-box entry subcircuit for sky130_fd_sc_hd__o21ai_1 abstract view
.subckt sky130_fd_sc_hd__o21ai_1 A1 A2 B1 VGND VNB VPB VPWR Y
.ends

* Black-box entry subcircuit for sky130_fd_sc_hd__nor2_2 abstract view
.subckt sky130_fd_sc_hd__nor2_2 A B VGND VNB VPB VPWR Y
.ends

* Black-box entry subcircuit for sky130_fd_sc_hd__nand2_2 abstract view
.subckt sky130_fd_sc_hd__nand2_2 A B VGND VNB VPB VPWR Y
.ends

* Black-box entry subcircuit for sky130_fd_sc_hd__o21ba_1 abstract view
.subckt sky130_fd_sc_hd__o21ba_1 A1 A2 B1_N VGND VNB VPB VPWR X
.ends

* Black-box entry subcircuit for sky130_fd_sc_hd__o21ai_4 abstract view
.subckt sky130_fd_sc_hd__o21ai_4 A1 A2 B1 VGND VNB VPB VPWR Y
.ends

* Black-box entry subcircuit for sky130_fd_sc_hd__a22oi_1 abstract view
.subckt sky130_fd_sc_hd__a22oi_1 A1 A2 B1 B2 VGND VNB VPB VPWR Y
.ends

* Black-box entry subcircuit for sky130_fd_sc_hd__and4bb_1 abstract view
.subckt sky130_fd_sc_hd__and4bb_1 A_N B_N C D VGND VNB VPB VPWR X
.ends

* Black-box entry subcircuit for sky130_fd_sc_hd__xnor2_2 abstract view
.subckt sky130_fd_sc_hd__xnor2_2 A B VGND VNB VPB VPWR Y
.ends

* Black-box entry subcircuit for sky130_fd_sc_hd__mux2_1 abstract view
.subckt sky130_fd_sc_hd__mux2_1 A0 A1 S VGND VNB VPB VPWR X
.ends

* Black-box entry subcircuit for sky130_fd_sc_hd__a31oi_1 abstract view
.subckt sky130_fd_sc_hd__a31oi_1 A1 A2 A3 B1 VGND VNB VPB VPWR Y
.ends

* Black-box entry subcircuit for sky130_fd_sc_hd__nor3b_4 abstract view
.subckt sky130_fd_sc_hd__nor3b_4 A B C_N VGND VNB VPB VPWR Y
.ends

* Black-box entry subcircuit for sky130_fd_sc_hd__and4_1 abstract view
.subckt sky130_fd_sc_hd__and4_1 A B C D VGND VNB VPB VPWR X
.ends

* Black-box entry subcircuit for sky130_fd_sc_hd__a32oi_2 abstract view
.subckt sky130_fd_sc_hd__a32oi_2 A1 A2 A3 B1 B2 VGND VNB VPB VPWR Y
.ends

* Black-box entry subcircuit for sky130_fd_sc_hd__o32a_1 abstract view
.subckt sky130_fd_sc_hd__o32a_1 A1 A2 A3 B1 B2 VGND VNB VPB VPWR X
.ends

* Black-box entry subcircuit for sky130_fd_sc_hd__xor2_4 abstract view
.subckt sky130_fd_sc_hd__xor2_4 A B VGND VNB VPB VPWR X
.ends

* Black-box entry subcircuit for sky130_fd_sc_hd__o221ai_1 abstract view
.subckt sky130_fd_sc_hd__o221ai_1 A1 A2 B1 B2 C1 VGND VNB VPB VPWR Y
.ends

* Black-box entry subcircuit for sky130_fd_sc_hd__nor3b_2 abstract view
.subckt sky130_fd_sc_hd__nor3b_2 A B C_N VGND VNB VPB VPWR Y
.ends

* Black-box entry subcircuit for sky130_fd_sc_hd__o2111a_1 abstract view
.subckt sky130_fd_sc_hd__o2111a_1 A1 A2 B1 C1 D1 VGND VNB VPB VPWR X
.ends

* Black-box entry subcircuit for sky130_fd_sc_hd__nand3b_2 abstract view
.subckt sky130_fd_sc_hd__nand3b_2 A_N B C VGND VNB VPB VPWR Y
.ends

* Black-box entry subcircuit for sky130_fd_sc_hd__o21bai_1 abstract view
.subckt sky130_fd_sc_hd__o21bai_1 A1 A2 B1_N VGND VNB VPB VPWR Y
.ends

* Black-box entry subcircuit for sky130_fd_sc_hd__o21bai_2 abstract view
.subckt sky130_fd_sc_hd__o21bai_2 A1 A2 B1_N VGND VNB VPB VPWR Y
.ends

* Black-box entry subcircuit for sky130_fd_sc_hd__xnor2_4 abstract view
.subckt sky130_fd_sc_hd__xnor2_4 A B VGND VNB VPB VPWR Y
.ends

* Black-box entry subcircuit for sky130_fd_sc_hd__dfrtp_4 abstract view
.subckt sky130_fd_sc_hd__dfrtp_4 CLK D RESET_B VGND VNB VPB VPWR Q
.ends

* Black-box entry subcircuit for sky130_fd_sc_hd__a211oi_1 abstract view
.subckt sky130_fd_sc_hd__a211oi_1 A1 A2 B1 C1 VGND VNB VPB VPWR Y
.ends

* Black-box entry subcircuit for sky130_fd_sc_hd__o21ba_2 abstract view
.subckt sky130_fd_sc_hd__o21ba_2 A1 A2 B1_N VGND VNB VPB VPWR X
.ends

* Black-box entry subcircuit for sky130_fd_sc_hd__or4b_1 abstract view
.subckt sky130_fd_sc_hd__or4b_1 A B C D_N VGND VNB VPB VPWR X
.ends

.subckt counter_8bit VGND VPWR clk rst sine_out[0] sine_out[10] sine_out[11] sine_out[12]
+ sine_out[13] sine_out[14] sine_out[15] sine_out[1] sine_out[2] sine_out[3] sine_out[4]
+ sine_out[5] sine_out[6] sine_out[7] sine_out[8] sine_out[9]
XTAP_TAPCELL_ROW_24_139 VGND VPWR sky130_fd_sc_hd__tapvpwrvgnd_1
XFILLER_22_100 VGND VGND VPWR VPWR sky130_fd_sc_hd__decap_3
X_432_ net47 net58 VGND VGND VPWR VPWR _374_ sky130_fd_sc_hd__and2_1
XFILLER_13_111 VGND VGND VPWR VPWR sky130_fd_sc_hd__fill_1
X_501_ net46 net67 VGND VGND VPWR VPWR _066_ sky130_fd_sc_hd__nand2b_1
XFILLER_3_45 VGND VGND VPWR VPWR sky130_fd_sc_hd__fill_1
XPHY_EDGE_ROW_19_Left_50 VGND VGND VPWR VPWR sky130_fd_sc_hd__decap_3
X_415_ net65 net51 VGND VGND VPWR VPWR _357_ sky130_fd_sc_hd__nand2b_1
XFILLER_23_97 VGND VGND VPWR VPWR sky130_fd_sc_hd__decap_4
XFILLER_23_53 VGND VGND VPWR VPWR sky130_fd_sc_hd__decap_3
XPHY_EDGE_ROW_4_Left_35 VGND VGND VPWR VPWR sky130_fd_sc_hd__decap_3
XFILLER_0_57 VGND VGND VPWR VPWR sky130_fd_sc_hd__fill_2
XFILLER_9_22 VGND VGND VPWR VPWR sky130_fd_sc_hd__fill_2
XFILLER_9_44 VGND VGND VPWR VPWR sky130_fd_sc_hd__fill_1
XFILLER_22_7 VGND VGND VPWR VPWR sky130_fd_sc_hd__decap_6
XFILLER_18_42 VGND VGND VPWR VPWR sky130_fd_sc_hd__decap_3
X_680_ net48 _354_ _356_ _046_ net41 VGND VGND VPWR VPWR _239_ sky130_fd_sc_hd__a311o_1
XFILLER_29_139 VGND VGND VPWR VPWR sky130_fd_sc_hd__fill_1
XFILLER_28_183 VGND VGND VPWR VPWR sky130_fd_sc_hd__fill_2
X_801_ clknet_1_0__leaf_clk _003_ _011_ VGND VGND VPWR VPWR tcount\[3\] sky130_fd_sc_hd__dfrtp_1
X_594_ net23 _156_ VGND VGND VPWR VPWR _157_ sky130_fd_sc_hd__nand2_1
X_663_ _083_ _221_ _222_ net38 VGND VGND VPWR VPWR _223_ sky130_fd_sc_hd__a22o_1
X_732_ net45 _197_ _287_ net35 VGND VGND VPWR VPWR _288_ sky130_fd_sc_hd__o211a_1
XFILLER_19_183 VGND VGND VPWR VPWR sky130_fd_sc_hd__fill_2
XFILLER_13_3 VGND VGND VPWR VPWR sky130_fd_sc_hd__fill_1
XTAP_TAPCELL_ROW_27_148 VGND VPWR sky130_fd_sc_hd__tapvpwrvgnd_1
XFILLER_25_164 VGND VGND VPWR VPWR sky130_fd_sc_hd__decap_4
XFILLER_17_109 VGND VGND VPWR VPWR sky130_fd_sc_hd__decap_3
Xoutput7 net7 VGND VGND VPWR VPWR sine_out[14] sky130_fd_sc_hd__buf_2
X_646_ _051_ _206_ VGND VGND VPWR VPWR _207_ sky130_fd_sc_hd__nand2_1
XFILLER_16_131 VGND VGND VPWR VPWR sky130_fd_sc_hd__decap_3
X_577_ _031_ _137_ _140_ net31 VGND VGND VPWR VPWR _141_ sky130_fd_sc_hd__a31o_1
X_715_ net36 _071_ _198_ _348_ VGND VGND VPWR VPWR _272_ sky130_fd_sc_hd__a31o_1
X_500_ net52 net61 VGND VGND VPWR VPWR _065_ sky130_fd_sc_hd__or2_2
X_431_ net59 net23 VGND VGND VPWR VPWR _373_ sky130_fd_sc_hd__and2_1
X_629_ net31 _178_ _189_ VGND VGND VPWR VPWR _191_ sky130_fd_sc_hd__or3_1
XFILLER_12_99 VPWR VGND VPWR VGND sky130_ef_sc_hd__decap_12
XFILLER_12_77 VGND VGND VPWR VPWR sky130_fd_sc_hd__decap_6
XFILLER_12_66 VGND VGND VPWR VPWR sky130_fd_sc_hd__fill_1
XPHY_EDGE_ROW_20_Left_51 VGND VGND VPWR VPWR sky130_fd_sc_hd__decap_3
X_414_ net68 net57 VGND VGND VPWR VPWR _356_ sky130_fd_sc_hd__nand2_1
XTAP_TAPCELL_ROW_8_89 VGND VPWR sky130_fd_sc_hd__tapvpwrvgnd_1
XPHY_EDGE_ROW_21_Right_21 VGND VGND VPWR VPWR sky130_fd_sc_hd__decap_3
XPHY_EDGE_ROW_12_Right_12 VGND VGND VPWR VPWR sky130_fd_sc_hd__decap_3
XPHY_EDGE_ROW_30_Right_30 VGND VGND VPWR VPWR sky130_fd_sc_hd__decap_3
XFILLER_23_87 VGND VGND VPWR VPWR sky130_fd_sc_hd__fill_1
XFILLER_2_111 VGND VGND VPWR VPWR sky130_fd_sc_hd__fill_2
XFILLER_2_100 VGND VGND VPWR VPWR sky130_fd_sc_hd__fill_1
X_800_ clknet_1_0__leaf_clk _002_ _010_ VGND VGND VPWR VPWR tcount\[2\] sky130_fd_sc_hd__dfrtp_2
X_662_ net51 _372_ net20 _076_ VGND VGND VPWR VPWR _222_ sky130_fd_sc_hd__a22o_1
X_731_ net55 net19 _349_ _371_ VGND VGND VPWR VPWR _287_ sky130_fd_sc_hd__a211o_1
XFILLER_19_173 VGND VGND VPWR VPWR sky130_fd_sc_hd__fill_1
X_593_ net71 net59 net51 VGND VGND VPWR VPWR _156_ sky130_fd_sc_hd__a21oi_2
XFILLER_6_46 VGND VGND VPWR VPWR sky130_fd_sc_hd__fill_1
XFILLER_6_79 VGND VGND VPWR VPWR sky130_fd_sc_hd__decap_4
XFILLER_15_66 VPWR VGND VPWR VGND sky130_ef_sc_hd__decap_12
XFILLER_15_55 VGND VGND VPWR VPWR sky130_fd_sc_hd__fill_1
XPHY_EDGE_ROW_6_Right_6 VGND VGND VPWR VPWR sky130_fd_sc_hd__decap_3
Xoutput8 net8 VGND VGND VPWR VPWR sine_out[15] sky130_fd_sc_hd__buf_2
X_645_ net41 _063_ _198_ _205_ _369_ VGND VGND VPWR VPWR _206_ sky130_fd_sc_hd__a32o_1
X_576_ _139_ net28 _138_ VGND VGND VPWR VPWR _140_ sky130_fd_sc_hd__or3b_1
X_714_ net38 _020_ _096_ _270_ VGND VGND VPWR VPWR _271_ sky130_fd_sc_hd__o31a_1
Xoutput10 net10 VGND VGND VPWR VPWR sine_out[2] sky130_fd_sc_hd__buf_2
XFILLER_13_113 VGND VGND VPWR VPWR sky130_fd_sc_hd__decap_8
X_430_ net61 net71 VGND VGND VPWR VPWR _372_ sky130_fd_sc_hd__nand2b_4
X_628_ _178_ _179_ _189_ VGND VGND VPWR VPWR _190_ sky130_fd_sc_hd__a21oi_1
X_559_ _344_ _363_ _122_ _121_ _031_ VGND VGND VPWR VPWR _123_ sky130_fd_sc_hd__o311a_1
XFILLER_3_69 VGND VGND VPWR VPWR sky130_fd_sc_hd__fill_1
XFILLER_8_172 VPWR VGND VPWR VGND sky130_ef_sc_hd__decap_12
XFILLER_12_45 VGND VGND VPWR VPWR sky130_fd_sc_hd__decap_8
XFILLER_10_149 VGND VGND VPWR VPWR sky130_fd_sc_hd__decap_8
XFILLER_10_138 VGND VGND VPWR VPWR sky130_fd_sc_hd__fill_2
XFILLER_10_105 VGND VGND VPWR VPWR sky130_fd_sc_hd__fill_1
XTAP_TAPCELL_ROW_11_100 VGND VPWR sky130_fd_sc_hd__tapvpwrvgnd_1
X_413_ net70 net56 VGND VGND VPWR VPWR _355_ sky130_fd_sc_hd__and2_1
XFILLER_23_77 VGND VGND VPWR VPWR sky130_fd_sc_hd__decap_6
XFILLER_0_15 VPWR VGND VPWR VGND sky130_ef_sc_hd__decap_12
XFILLER_2_156 VPWR VGND VPWR VGND sky130_ef_sc_hd__decap_12
XFILLER_3_3 VPWR VGND VPWR VGND sky130_ef_sc_hd__decap_12
XFILLER_9_57 VGND VGND VPWR VPWR sky130_fd_sc_hd__decap_8
XFILLER_18_22 VGND VGND VPWR VPWR sky130_fd_sc_hd__decap_6
XFILLER_18_11 VGND VGND VPWR VPWR sky130_fd_sc_hd__decap_3
XFILLER_20_34 VGND VGND VPWR VPWR sky130_fd_sc_hd__decap_8
XFILLER_29_98 VGND VGND VPWR VPWR sky130_fd_sc_hd__decap_4
XFILLER_28_141 VGND VGND VPWR VPWR sky130_fd_sc_hd__decap_4
X_592_ net43 _154_ VGND VGND VPWR VPWR _155_ sky130_fd_sc_hd__nand2_1
X_661_ net59 _001_ _036_ net24 VGND VGND VPWR VPWR _221_ sky130_fd_sc_hd__a211o_1
X_730_ _373_ _019_ _075_ _353_ net26 VGND VGND VPWR VPWR _286_ sky130_fd_sc_hd__o221a_1
XFILLER_25_177 VGND VGND VPWR VPWR sky130_fd_sc_hd__decap_8
XFILLER_25_111 VGND VGND VPWR VPWR sky130_fd_sc_hd__fill_1
XFILLER_25_100 VGND VGND VPWR VPWR sky130_fd_sc_hd__decap_4
X_644_ _355_ _361_ net28 VGND VGND VPWR VPWR _205_ sky130_fd_sc_hd__o21a_1
X_575_ net72 net53 net61 net66 VGND VGND VPWR VPWR _139_ sky130_fd_sc_hd__and4b_1
XFILLER_15_78 VGND VGND VPWR VPWR sky130_fd_sc_hd__decap_4
Xoutput11 net11 VGND VGND VPWR VPWR sine_out[3] sky130_fd_sc_hd__buf_2
X_713_ _261_ _269_ net26 VGND VGND VPWR VPWR _270_ sky130_fd_sc_hd__a21o_1
Xoutput9 net9 VGND VGND VPWR VPWR sine_out[1] sky130_fd_sc_hd__buf_2
XFILLER_26_55 VGND VGND VPWR VPWR sky130_fd_sc_hd__decap_3
XFILLER_13_136 VGND VGND VPWR VPWR sky130_fd_sc_hd__fill_1
X_627_ tcount\[6\] _186_ _188_ _051_ _182_ VGND VGND VPWR VPWR _189_ sky130_fd_sc_hd__a32o_1
X_489_ _000_ _380_ _038_ net47 _032_ VGND VGND VPWR VPWR _054_ sky130_fd_sc_hd__a221oi_1
X_558_ net36 _361_ VGND VGND VPWR VPWR _122_ sky130_fd_sc_hd__nand2_1
XFILLER_3_15 VGND VGND VPWR VPWR sky130_fd_sc_hd__fill_2
XFILLER_8_184 VGND VGND VPWR VPWR sky130_fd_sc_hd__fill_1
X_412_ net57 net63 VGND VGND VPWR VPWR _354_ sky130_fd_sc_hd__nand2b_2
XFILLER_0_27 VGND VGND VPWR VPWR sky130_fd_sc_hd__fill_1
XFILLER_2_146 VGND VGND VPWR VPWR sky130_fd_sc_hd__fill_1
XFILLER_2_168 VPWR VGND VPWR VGND sky130_ef_sc_hd__decap_12
XFILLER_29_3 VPWR VGND VPWR VGND sky130_ef_sc_hd__decap_12
XPHY_EDGE_ROW_8_Left_39 VGND VGND VPWR VPWR sky130_fd_sc_hd__decap_3
XFILLER_1_81 VGND VGND VPWR VPWR sky130_fd_sc_hd__decap_4
XFILLER_29_55 VGND VGND VPWR VPWR sky130_fd_sc_hd__fill_1
X_591_ net53 net66 _026_ _076_ net22 VGND VGND VPWR VPWR _154_ sky130_fd_sc_hd__a32o_1
X_660_ _029_ _042_ _219_ net37 VGND VGND VPWR VPWR _220_ sky130_fd_sc_hd__a22o_1
XFILLER_6_37 VGND VGND VPWR VPWR sky130_fd_sc_hd__decap_3
X_789_ _335_ _336_ VGND VGND VPWR VPWR _006_ sky130_fd_sc_hd__and2_1
Xoutput12 net12 VGND VGND VPWR VPWR sine_out[4] sky130_fd_sc_hd__buf_2
XFILLER_15_57 VGND VGND VPWR VPWR sky130_fd_sc_hd__decap_6
XFILLER_15_24 VGND VGND VPWR VPWR sky130_fd_sc_hd__decap_6
X_712_ net19 _018_ VGND VGND VPWR VPWR _269_ sky130_fd_sc_hd__nand2_1
XFILLER_16_123 VGND VGND VPWR VPWR sky130_fd_sc_hd__decap_8
X_574_ net52 net66 _363_ VGND VGND VPWR VPWR _138_ sky130_fd_sc_hd__or3_1
XFILLER_11_3 VPWR VGND VPWR VGND sky130_ef_sc_hd__decap_12
X_643_ _201_ _203_ _347_ VGND VGND VPWR VPWR _204_ sky130_fd_sc_hd__o21a_1
XFILLER_30_181 VGND VGND VPWR VPWR sky130_fd_sc_hd__decap_4
XFILLER_22_137 VGND VGND VPWR VPWR sky130_fd_sc_hd__decap_3
X_557_ _362_ _390_ _090_ _343_ net44 VGND VGND VPWR VPWR _121_ sky130_fd_sc_hd__a221o_1
X_626_ _029_ _049_ _187_ net43 _337_ VGND VGND VPWR VPWR _188_ sky130_fd_sc_hd__a221o_1
X_488_ _347_ _383_ _034_ _053_ VGND VGND VPWR VPWR net2 sky130_fd_sc_hd__a211o_1
XFILLER_9_108 VGND VGND VPWR VPWR sky130_fd_sc_hd__decap_4
XFILLER_9_119 VGND VGND VPWR VPWR sky130_fd_sc_hd__decap_4
XFILLER_8_141 VGND VGND VPWR VPWR sky130_fd_sc_hd__fill_1
X_411_ net55 net62 VGND VGND VPWR VPWR _353_ sky130_fd_sc_hd__and2b_1
X_609_ net29 _170_ _171_ _347_ VGND VGND VPWR VPWR _172_ sky130_fd_sc_hd__o211a_1
XFILLER_23_57 VGND VGND VPWR VPWR sky130_fd_sc_hd__decap_6
XFILLER_23_35 VPWR VGND VPWR VGND sky130_ef_sc_hd__decap_12
XFILLER_2_125 VGND VGND VPWR VPWR sky130_fd_sc_hd__fill_2
XFILLER_4_81 VGND VGND VPWR VPWR sky130_fd_sc_hd__decap_3
XPHY_EDGE_ROW_24_Left_55 VGND VGND VPWR VPWR sky130_fd_sc_hd__decap_3
X_590_ net29 net20 _152_ _348_ VGND VGND VPWR VPWR _153_ sky130_fd_sc_hd__a31o_1
X_788_ net34 net43 _128_ tcount\[6\] VGND VGND VPWR VPWR _336_ sky130_fd_sc_hd__a31o_1
XFILLER_19_121 VGND VGND VPWR VPWR sky130_fd_sc_hd__decap_8
Xoutput13 net13 VGND VGND VPWR VPWR sine_out[5] sky130_fd_sc_hd__buf_2
XPHY_EDGE_ROW_11_Left_42 VGND VGND VPWR VPWR sky130_fd_sc_hd__decap_3
XPHY_EDGE_ROW_28_Right_28 VGND VGND VPWR VPWR sky130_fd_sc_hd__decap_3
XPHY_EDGE_ROW_19_Right_19 VGND VGND VPWR VPWR sky130_fd_sc_hd__decap_3
XTAP_TAPCELL_ROW_18_119 VGND VPWR sky130_fd_sc_hd__tapvpwrvgnd_1
X_573_ net23 _028_ net20 net52 net42 VGND VGND VPWR VPWR _137_ sky130_fd_sc_hd__a221o_1
X_711_ net30 _265_ _268_ VGND VGND VPWR VPWR net16 sky130_fd_sc_hd__a21bo_1
X_642_ _115_ _202_ net35 VGND VGND VPWR VPWR _203_ sky130_fd_sc_hd__a21oi_1
XFILLER_26_79 VGND VGND VPWR VPWR sky130_fd_sc_hd__fill_1
X_625_ net60 _076_ _364_ VGND VGND VPWR VPWR _187_ sky130_fd_sc_hd__a21bo_1
X_487_ net41 _043_ _044_ _050_ _051_ VGND VGND VPWR VPWR _053_ sky130_fd_sc_hd__o311a_1
X_556_ _385_ _039_ _042_ _348_ VGND VGND VPWR VPWR _120_ sky130_fd_sc_hd__a31o_1
XFILLER_8_120 VPWR VGND VPWR VGND sky130_ef_sc_hd__decap_12
XTAP_TAPCELL_ROW_20_125 VGND VPWR sky130_fd_sc_hd__tapvpwrvgnd_1
X_410_ net71 net59 VGND VGND VPWR VPWR _352_ sky130_fd_sc_hd__nand2b_1
XFILLER_12_26 VGND VGND VPWR VPWR sky130_fd_sc_hd__fill_2
X_539_ _026_ _028_ _103_ VGND VGND VPWR VPWR _104_ sky130_fd_sc_hd__a21o_1
X_608_ net50 net20 _057_ _372_ net38 VGND VGND VPWR VPWR _171_ sky130_fd_sc_hd__a221o_1
XFILLER_23_47 VGND VGND VPWR VPWR sky130_fd_sc_hd__fill_1
XFILLER_23_25 VGND VGND VPWR VPWR sky130_fd_sc_hd__decap_4
Xfanout70 tcount\[0\] VGND VGND VPWR VPWR net70 sky130_fd_sc_hd__buf_2
XFILLER_0_29 VPWR VGND VPWR VGND sky130_ef_sc_hd__decap_12
XFILLER_9_38 VGND VGND VPWR VPWR sky130_fd_sc_hd__decap_6
XFILLER_1_181 VGND VGND VPWR VPWR sky130_fd_sc_hd__decap_4
XTAP_TAPCELL_ROW_9_92 VGND VPWR sky130_fd_sc_hd__tapvpwrvgnd_1
XFILLER_18_58 VGND VGND VPWR VPWR sky130_fd_sc_hd__fill_1
XFILLER_1_3 VPWR VGND VPWR VGND sky130_ef_sc_hd__decap_12
XFILLER_29_57 VPWR VGND VPWR VGND sky130_ef_sc_hd__decap_12
XFILLER_20_48 VPWR VGND VPWR VGND sky130_ef_sc_hd__decap_12
XFILLER_20_26 VGND VGND VPWR VPWR sky130_fd_sc_hd__fill_2
X_787_ _032_ _334_ VGND VGND VPWR VPWR _335_ sky130_fd_sc_hd__or2_1
XFILLER_15_15 VGND VGND VPWR VPWR sky130_fd_sc_hd__fill_1
X_572_ _132_ _133_ _135_ _348_ VGND VGND VPWR VPWR _136_ sky130_fd_sc_hd__a31o_1
X_710_ net30 _258_ _264_ _267_ VGND VGND VPWR VPWR _268_ sky130_fd_sc_hd__or4_1
Xoutput14 net14 VGND VGND VPWR VPWR sine_out[6] sky130_fd_sc_hd__buf_2
X_641_ net24 _351_ _036_ VGND VGND VPWR VPWR _202_ sky130_fd_sc_hd__or3_1
XFILLER_22_117 VGND VGND VPWR VPWR sky130_fd_sc_hd__decap_4
XTAP_TAPCELL_ROW_23_134 VGND VPWR sky130_fd_sc_hd__tapvpwrvgnd_1
X_486_ _331_ net34 VGND VGND VPWR VPWR _052_ sky130_fd_sc_hd__nand2_4
X_624_ net29 _377_ _183_ _185_ net33 VGND VGND VPWR VPWR _186_ sky130_fd_sc_hd__a311o_1
X_555_ net46 _373_ _063_ net35 VGND VGND VPWR VPWR _119_ sky130_fd_sc_hd__o211a_1
XFILLER_8_132 VGND VGND VPWR VPWR sky130_fd_sc_hd__decap_8
XFILLER_8_165 VGND VGND VPWR VPWR sky130_fd_sc_hd__fill_1
XTAP_TAPCELL_ROW_20_126 VGND VPWR sky130_fd_sc_hd__tapvpwrvgnd_1
XFILLER_12_38 VGND VGND VPWR VPWR sky130_fd_sc_hd__decap_3
X_538_ net50 _349_ net26 VGND VGND VPWR VPWR _103_ sky130_fd_sc_hd__a21o_1
XFILLER_5_113 VGND VGND VPWR VPWR sky130_fd_sc_hd__decap_6
XFILLER_5_146 VGND VGND VPWR VPWR sky130_fd_sc_hd__decap_4
X_607_ net24 _367_ _025_ _092_ VGND VGND VPWR VPWR _170_ sky130_fd_sc_hd__o31a_1
X_469_ net59 net65 net71 VGND VGND VPWR VPWR _036_ sky130_fd_sc_hd__and3b_1
Xfanout60 net61 VGND VGND VPWR VPWR net60 sky130_fd_sc_hd__buf_2
XFILLER_2_138 VGND VGND VPWR VPWR sky130_fd_sc_hd__fill_2
Xfanout71 net72 VGND VGND VPWR VPWR net71 sky130_fd_sc_hd__buf_4
XFILLER_1_160 VGND VGND VPWR VPWR sky130_fd_sc_hd__decap_8
XTAP_TAPCELL_ROW_0_62 VGND VPWR sky130_fd_sc_hd__tapvpwrvgnd_1
XTAP_TAPCELL_ROW_9_93 VGND VPWR sky130_fd_sc_hd__tapvpwrvgnd_1
XFILLER_27_3 VPWR VGND VPWR VGND sky130_ef_sc_hd__decap_12
XFILLER_29_69 VGND VGND VPWR VPWR sky130_fd_sc_hd__fill_1
XFILLER_28_123 VGND VGND VPWR VPWR sky130_fd_sc_hd__decap_6
XFILLER_1_51 VGND VGND VPWR VPWR sky130_fd_sc_hd__decap_4
X_786_ net34 _334_ VGND VGND VPWR VPWR _005_ sky130_fd_sc_hd__xnor2_1
XFILLER_19_145 VGND VGND VPWR VPWR sky130_fd_sc_hd__fill_2
XFILLER_10_71 VPWR VGND VPWR VGND sky130_ef_sc_hd__decap_12
XTAP_TAPCELL_ROW_6_83 VGND VPWR sky130_fd_sc_hd__tapvpwrvgnd_1
XTAP_TAPCELL_ROW_26_143 VGND VPWR sky130_fd_sc_hd__tapvpwrvgnd_1
Xoutput15 net15 VGND VGND VPWR VPWR sine_out[7] sky130_fd_sc_hd__buf_2
X_571_ net27 _349_ _134_ VGND VGND VPWR VPWR _135_ sky130_fd_sc_hd__or3b_1
XFILLER_16_104 VGND VGND VPWR VPWR sky130_fd_sc_hd__decap_4
XPHY_EDGE_ROW_1_Right_1 VGND VGND VPWR VPWR sky130_fd_sc_hd__decap_3
X_640_ net45 _353_ _025_ _361_ net35 VGND VGND VPWR VPWR _201_ sky130_fd_sc_hd__o311a_1
X_769_ net40 net49 _359_ _389_ VGND VGND VPWR VPWR _323_ sky130_fd_sc_hd__a31o_1
XFILLER_22_129 VGND VGND VPWR VPWR sky130_fd_sc_hd__decap_8
XFILLER_7_61 VGND VGND VPWR VPWR sky130_fd_sc_hd__fill_1
XFILLER_26_15 VGND VGND VPWR VPWR sky130_fd_sc_hd__decap_8
XTAP_TAPCELL_ROW_23_135 VGND VPWR sky130_fd_sc_hd__tapvpwrvgnd_1
X_485_ tcount\[6\] _337_ VGND VGND VPWR VPWR _051_ sky130_fd_sc_hd__nor2_4
X_623_ net28 _380_ _082_ _139_ VGND VGND VPWR VPWR _185_ sky130_fd_sc_hd__nor4_1
XFILLER_12_184 VGND VGND VPWR VPWR sky130_fd_sc_hd__fill_1
X_554_ net35 _019_ _041_ _066_ _117_ VGND VGND VPWR VPWR _118_ sky130_fd_sc_hd__a41o_1
XTAP_TAPCELL_ROW_20_127 VGND VPWR sky130_fd_sc_hd__tapvpwrvgnd_1
XFILLER_5_169 VPWR VGND VPWR VGND sky130_ef_sc_hd__decap_12
X_468_ net69 net57 net64 VGND VGND VPWR VPWR _035_ sky130_fd_sc_hd__or3_1
X_537_ net71 _380_ _101_ net37 VGND VGND VPWR VPWR _102_ sky130_fd_sc_hd__a211o_1
X_606_ _051_ _149_ _168_ net30 VGND VGND VPWR VPWR _169_ sky130_fd_sc_hd__a31o_1
X_399_ net71 net65 VGND VGND VPWR VPWR _342_ sky130_fd_sc_hd__nor2_1
XFILLER_4_73 VGND VGND VPWR VPWR sky130_fd_sc_hd__decap_8
Xfanout61 tcount\[2\] VGND VGND VPWR VPWR net61 sky130_fd_sc_hd__clkbuf_2
Xfanout72 tcount\[0\] VGND VGND VPWR VPWR net72 sky130_fd_sc_hd__buf_2
Xfanout50 net54 VGND VGND VPWR VPWR net50 sky130_fd_sc_hd__buf_2
XFILLER_13_93 VGND VGND VPWR VPWR sky130_fd_sc_hd__fill_1
XTAP_TAPCELL_ROW_0_63 VGND VPWR sky130_fd_sc_hd__tapvpwrvgnd_1
XTAP_TAPCELL_ROW_9_94 VGND VPWR sky130_fd_sc_hd__tapvpwrvgnd_1
XPHY_EDGE_ROW_28_Left_59 VGND VGND VPWR VPWR sky130_fd_sc_hd__decap_3
XFILLER_29_15 VPWR VGND VPWR VGND sky130_ef_sc_hd__decap_12
XFILLER_1_85 VGND VGND VPWR VPWR sky130_fd_sc_hd__fill_1
XFILLER_6_19 VGND VGND VPWR VPWR sky130_fd_sc_hd__decap_4
XFILLER_10_83 VGND VGND VPWR VPWR sky130_fd_sc_hd__fill_1
XTAP_TAPCELL_ROW_29_152 VGND VPWR sky130_fd_sc_hd__tapvpwrvgnd_1
X_785_ _129_ _334_ VGND VGND VPWR VPWR _004_ sky130_fd_sc_hd__and2_1
XTAP_TAPCELL_ROW_6_84 VGND VPWR sky130_fd_sc_hd__tapvpwrvgnd_1
XTAP_TAPCELL_ROW_26_144 VGND VPWR sky130_fd_sc_hd__tapvpwrvgnd_1
X_570_ net48 _356_ _359_ VGND VGND VPWR VPWR _134_ sky130_fd_sc_hd__and3_1
Xoutput16 net16 VGND VGND VPWR VPWR sine_out[8] sky130_fd_sc_hd__buf_2
X_768_ net40 _350_ _134_ VGND VGND VPWR VPWR _322_ sky130_fd_sc_hd__a21oi_1
XFILLER_24_182 VGND VGND VPWR VPWR sky130_fd_sc_hd__decap_3
Xclkbuf_0_clk clk VGND VGND VPWR VPWR clknet_0_clk sky130_fd_sc_hd__clkbuf_16
XFILLER_22_108 VGND VGND VPWR VPWR sky130_fd_sc_hd__fill_1
XFILLER_21_71 VGND VGND VPWR VPWR sky130_fd_sc_hd__decap_3